<?xml version="1.0" encoding="UTF-8"?>

<!-- generated on 2024-01-03 23:54:02 by Eclipse SUMO netedit Version 1.12.0
<configuration xmlns:xsi="http://www.w3.org/2001/XMLSchema-instance" xsi:noNamespaceSchemaLocation="http://sumo.dlr.de/xsd/netconvertConfiguration.xsd">

    <input>
        <sumo-net-file value="/home/nivi/Downloads/sample.net.xml"/>
    </input>

    <output>
        <output-file value="/home/nivi/Downloads/sample.net.xml"/>
    </output>

    <processing>
        <geometry.min-radius.fix.railways value="false"/>
        <geometry.max-grade.fix value="false"/>
        <offset.disable-normalization value="true"/>
        <lefthand value="false"/>
    </processing>

    <junctions>
        <no-internal-links value="false"/>
        <no-turnarounds value="true"/>
        <junctions.corner-detail value="5"/>
        <junctions.limit-turn-speed value="5.5"/>
        <rectangular-lane-cut value="false"/>
    </junctions>

    <pedestrian>
        <walkingareas value="false"/>
    </pedestrian>

    <netedit>
        <route-files value="/home/nivi/Downloads/sam.rou.xml"/>
    </netedit>

    <report>
        <aggregate-warnings value="5"/>
    </report>

</configuration>
-->

<net version="1.9" junctionCornerDetail="5" limitTurnSpeed="5.50" xmlns:xsi="http://www.w3.org/2001/XMLSchema-instance" xsi:noNamespaceSchemaLocation="http://sumo.dlr.de/xsd/net_file.xsd">

    <location netOffset="0.00,0.00" convBoundary="-100.00,-100.00,100.00,100.00" origBoundary="-10000000000.00,-10000000000.00,10000000000.00,10000000000.00" projParameter="!"/>

    <edge id=":J0_w0" function="walkingarea">
        <lane id=":J0_w0_0" index="0" allow="pedestrian" speed="1.00" length="3.20" width="3.20" shape="0.00,100.00 -3.20,100.00 3.20,100.00 0.00,100.00"/>
    </edge>
    <edge id=":J1_0" function="internal">
        <lane id=":J1_0_0" index="0" speed="7.02" length="10.69" shape="-1.60,7.20 -2.07,4.75 -3.50,3.00 -5.87,1.95 -9.20,1.60"/>
    </edge>
    <edge id=":J1_1" function="internal">
        <lane id=":J1_1_0" index="0" disallow="pedestrian" speed="13.89" length="14.40" shape="-1.60,7.20 -1.60,-7.20"/>
    </edge>
    <edge id=":J1_2" function="internal">
        <lane id=":J1_2_0" index="0" speed="8.42" length="3.91" shape="-1.60,7.20 -0.93,3.35"/>
    </edge>
    <edge id=":J1_13" function="internal">
        <lane id=":J1_13_0" index="0" speed="8.42" length="11.93" shape="-0.93,3.35 1.10,0.60 4.47,-1.05 9.20,-1.60"/>
    </edge>
    <edge id=":J1_3" function="internal">
        <lane id=":J1_3_0" index="0" speed="7.02" length="10.69" shape="9.20,1.60 5.87,1.95 3.50,3.00 2.08,4.75 1.60,7.20"/>
    </edge>
    <edge id=":J1_4" function="internal">
        <lane id=":J1_4_0" index="0" speed="13.89" length="18.40" shape="9.20,1.60 -9.20,1.60"/>
    </edge>
    <edge id=":J1_5" function="internal">
        <lane id=":J1_5_0" index="0" disallow="pedestrian" speed="8.42" length="5.00" shape="9.20,1.60 4.47,1.05 4.26,0.94"/>
    </edge>
    <edge id=":J1_14" function="internal">
        <lane id=":J1_14_0" index="0" disallow="pedestrian" speed="8.42" length="10.84" shape="4.26,0.94 1.10,-0.60 -0.92,-3.35 -1.60,-7.20"/>
    </edge>
    <edge id=":J1_6" function="internal">
        <lane id=":J1_6_0" index="0" disallow="pedestrian" speed="7.02" length="10.69" shape="1.60,-7.20 2.07,-4.75 3.50,-3.00 5.87,-1.95 9.20,-1.60"/>
    </edge>
    <edge id=":J1_7" function="internal">
        <lane id=":J1_7_0" index="0" disallow="pedestrian" speed="13.89" length="14.40" shape="1.60,-7.20 1.60,7.20"/>
    </edge>
    <edge id=":J1_8" function="internal">
        <lane id=":J1_8_0" index="0" disallow="pedestrian" speed="8.42" length="3.91" shape="1.60,-7.20 0.93,-3.35"/>
    </edge>
    <edge id=":J1_9" function="internal">
        <lane id=":J1_9_0" index="0" disallow="pedestrian" speed="3.65" length="1.44" shape="1.60,-7.20 0.80,-6.00"/>
    </edge>
    <edge id=":J1_15" function="internal">
        <lane id=":J1_15_0" index="0" disallow="pedestrian" speed="8.42" length="11.93" shape="0.93,-3.35 -1.10,-0.60 -4.47,1.05 -9.20,1.60"/>
    </edge>
    <edge id=":J1_16" function="internal">
        <lane id=":J1_16_0" index="0" disallow="pedestrian" speed="3.65" length="3.23" shape="0.80,-6.00 0.00,-5.60 -0.80,-6.00 -1.60,-7.20"/>
    </edge>
    <edge id=":J1_10" function="internal">
        <lane id=":J1_10_0" index="0" disallow="pedestrian" speed="7.02" length="6.20" shape="-9.20,-1.60 -5.87,-1.95 -3.50,-3.00 -3.34,-3.20"/>
    </edge>
    <edge id=":J1_11" function="internal">
        <lane id=":J1_11_0" index="0" speed="13.89" length="18.40" shape="-9.20,-1.60 9.20,-1.60"/>
    </edge>
    <edge id=":J1_12" function="internal">
        <lane id=":J1_12_0" index="0" speed="8.42" length="5.00" shape="-9.20,-1.60 -4.47,-1.05 -4.26,-0.94"/>
    </edge>
    <edge id=":J1_17" function="internal">
        <lane id=":J1_17_0" index="0" disallow="pedestrian" speed="7.02" length="4.49" shape="-3.34,-3.20 -2.08,-4.75 -1.60,-7.20"/>
    </edge>
    <edge id=":J1_18" function="internal">
        <lane id=":J1_18_0" index="0" speed="8.42" length="10.84" shape="-4.26,-0.94 -1.10,0.60 0.92,3.35 1.60,7.20"/>
    </edge>
    <edge id=":J1_c0" function="crossing" crossingEdges="E1 -E1">
        <lane id=":J1_c0_0" index="0" allow="pedestrian" speed="1.00" length="6.40" width="4.00" shape="-3.20,-5.20 3.20,-5.20"/>
    </edge>
    <edge id=":J1_w0" function="walkingarea">
        <lane id=":J1_w0_0" index="0" allow="pedestrian" speed="1.00" length="11.27" width="4.00" shape="-3.20,-3.20 -3.20,-7.20 -5.20,-7.20 -9.20,-3.20 -9.20,-0.00 -9.20,0.00 -9.20,3.20 -3.20,7.20 0.00,7.20 0.00,7.20 3.20,7.20 9.20,3.20 9.20,0.00 9.20,-0.00 9.20,-3.20 5.20,-7.20 3.20,-7.20 3.20,-3.20"/>
    </edge>
    <edge id=":J2_0" function="internal">
        <lane id=":J2_0_0" index="0" allow="pedestrian" speed="5.12" length="12.27" width="2.00" shape="-4.20,-100.00 -2.10,-103.15 0.00,-104.20 2.10,-103.15 4.20,-100.00"/>
    </edge>
    <edge id=":J2_w0" function="walkingarea">
        <lane id=":J2_w0_0" index="0" allow="pedestrian" speed="1.00" length="8.40" width="2.00" shape="3.20,-100.00 5.20,-100.00 -5.20,-100.00 -3.20,-100.00"/>
    </edge>
    <edge id=":J3_w0" function="walkingarea">
        <lane id=":J3_w0_0" index="0" allow="pedestrian" speed="1.00" length="3.20" width="3.20" shape="100.00,0.00 100.00,3.20 100.00,-3.20 100.00,-0.00"/>
    </edge>
    <edge id=":J4_w0" function="walkingarea">
        <lane id=":J4_w0_0" index="0" allow="pedestrian" speed="1.00" length="3.20" width="3.20" shape="-100.00,-0.00 -100.00,-3.20 -100.00,3.20 -100.00,0.00"/>
    </edge>

    <edge id="-E0" from="J1" to="J0" priority="-1">
        <lane id="-E0_0" index="0" speed="13.89" length="92.80" shape="1.60,7.20 1.60,100.00"/>
    </edge>
    <edge id="-E1" from="J2" to="J1" priority="-1">
        <lane id="-E1_0" index="0" allow="pedestrian" speed="13.89" length="92.80" width="2.00" shape="4.20,-100.00 4.20,-7.20"/>
        <lane id="-E1_1" index="1" disallow="pedestrian" speed="13.89" length="92.80" shape="1.60,-100.00 1.60,-7.20"/>
    </edge>
    <edge id="-E2" from="J3" to="J1" priority="-1">
        <lane id="-E2_0" index="0" speed="13.89" length="90.80" shape="100.00,1.60 9.20,1.60"/>
    </edge>
    <edge id="-E3" from="J4" to="J1" priority="-1">
        <lane id="-E3_0" index="0" speed="13.89" length="90.80" shape="-100.00,-1.60 -9.20,-1.60"/>
    </edge>
    <edge id="E0" from="J0" to="J1" priority="-1">
        <lane id="E0_0" index="0" speed="13.89" length="92.80" shape="-1.60,100.00 -1.60,7.20"/>
    </edge>
    <edge id="E1" from="J1" to="J2" priority="-1">
        <lane id="E1_0" index="0" allow="pedestrian" speed="13.89" length="92.80" width="2.00" shape="-4.20,-7.20 -4.20,-100.00"/>
        <lane id="E1_1" index="1" disallow="pedestrian" speed="13.89" length="92.80" shape="-1.60,-7.20 -1.60,-100.00"/>
    </edge>
    <edge id="E2" from="J1" to="J3" priority="-1">
        <lane id="E2_0" index="0" speed="13.89" length="90.80" shape="9.20,-1.60 100.00,-1.60"/>
    </edge>
    <edge id="E3" from="J1" to="J4" priority="-1">
        <lane id="E3_0" index="0" speed="13.89" length="90.80" shape="-9.20,1.60 -100.00,1.60"/>
    </edge>

    <tlLogic id="J1" type="static" programID="0" offset="0">
        <phase duration="42" state="GGgrrrGGggrrrr"/>
        <phase duration="3"  state="yyyrrryyyyrrrr"/>
        <phase duration="37" state="rrrGGgrrrrgGgG"/>
        <phase duration="5"  state="rrrGGgrrrrgGgr"/>
        <phase duration="3"  state="rrryyyrrrryyyr"/>
    </tlLogic>
    <tlLogic id="J1" type="static" programID="1" offset="0">
        <phase duration="42" state="GGgrrrGGggrrrr"/>
        <phase duration="3"  state="yyyrrryyyyrrrr"/>
        <phase duration="37" state="rrrGGgrrrrgGgG"/>
        <phase duration="5"  state="rrrGGgrrrrgGgr"/>
        <phase duration="3"  state="rrryyyrrrryyyr"/>
    </tlLogic>

    <junction id="J0" type="dead_end" x="0.00" y="100.00" incLanes="-E0_0" intLanes="" shape="0.00,100.00 3.20,100.00 0.00,100.00"/>
    <junction id="J1" type="traffic_light" x="0.00" y="0.00" incLanes="E0_0 -E2_0 -E1_0 -E1_1 -E3_0 :J1_w0_0" intLanes=":J1_0_0 :J1_1_0 :J1_13_0 :J1_3_0 :J1_4_0 :J1_14_0 :J1_6_0 :J1_7_0 :J1_15_0 :J1_16_0 :J1_17_0 :J1_11_0 :J1_18_0 :J1_c0_0" shape="-3.20,7.20 3.20,7.20 3.87,4.98 4.70,4.20 5.87,3.64 7.37,3.31 9.20,3.20 9.20,-3.20 6.98,-3.64 6.20,-4.20 5.64,-4.98 5.31,-5.98 5.20,-7.20 -5.20,-7.20 -5.64,-4.98 -6.20,-4.20 -6.98,-3.64 -7.98,-3.31 -9.20,-3.20 -9.20,3.20 -5.87,3.64 -4.70,4.20 -3.87,4.98 -3.37,5.98">
        <request index="0"  response="00000000000000" foes="00000100010000" cont="0"/>
        <request index="1"  response="11010000100000" foes="11111100110000" cont="0"/>
        <request index="2"  response="01000011100000" foes="01100111110000" cont="1"/>
        <request index="3"  response="00000010000000" foes="01000010000000" cont="0"/>
        <request index="4"  response="00000110000111" foes="01000110000111" cont="0"/>
        <request index="5"  response="11110110000110" foes="11111110000110" cont="1"/>
        <request index="6"  response="10000000000000" foes="10100000000100" cont="0"/>
        <request index="7"  response="11000000100000" foes="11100000111100" cont="0"/>
        <request index="8"  response="11000000100111" foes="11100000110111" cont="1"/>
        <request index="9"  response="10010000100010" foes="10010000100010" cont="1"/>
        <request index="10" response="10000000000010" foes="10001000100010" cont="1"/>
        <request index="11" response="00000111000110" foes="00000111100110" cont="0"/>
        <request index="12" response="00000110011110" foes="00000110111110" cont="1"/>
        <request index="13" response="00000000000000" foes="00011111100010" cont="0"/>
    </junction>
    <junction id="J2" type="priority" x="0.00" y="-100.00" incLanes="E1_0 E1_1" intLanes=":J2_0_0" shape="0.00,-100.00 -5.20,-100.00 0.00,-100.00">
        <request index="0" response="0" foes="0" cont="0"/>
    </junction>
    <junction id="J3" type="dead_end" x="100.00" y="0.00" incLanes="E2_0" intLanes="" shape="100.00,0.00 100.00,-3.20 100.00,0.00"/>
    <junction id="J4" type="dead_end" x="-100.00" y="0.00" incLanes="E3_0" intLanes="" shape="-100.00,0.00 -100.00,3.20 -100.00,0.00"/>

    <junction id=":J1_13_0" type="internal" x="-0.93" y="3.35" incLanes=":J1_2_0 -E1_1" intLanes=":J1_4_0 :J1_5_0 :J1_6_0 :J1_7_0 :J1_11_0 :J1_12_0"/>
    <junction id=":J1_14_0" type="internal" x="4.26" y="0.94" incLanes=":J1_5_0 -E3_0" intLanes=":J1_1_0 :J1_2_0 :J1_7_0 :J1_8_0 :J1_9_0 :J1_10_0 :J1_11_0 :J1_c0_0"/>
    <junction id=":J1_15_0" type="internal" x="0.93" y="-3.35" incLanes=":J1_8_0 E0_0" intLanes=":J1_0_0 :J1_1_0 :J1_4_0 :J1_5_0 :J1_11_0 :J1_12_0 :J1_c0_0"/>
    <junction id=":J1_16_0" type="internal" x="0.80" y="-6.00" incLanes=":J1_9_0 -E2_0 -E3_0 E0_0" intLanes=":J1_1_0 :J1_5_0 :J1_10_0 :J1_c0_0 :J1_c0_0"/>
    <junction id=":J1_17_0" type="internal" x="-3.34" y="-3.20" incLanes=":J1_10_0" intLanes=":J1_1_0 :J1_5_0 :J1_9_0 :J1_c0_0"/>
    <junction id=":J1_18_0" type="internal" x="-4.26" y="-0.94" incLanes=":J1_12_0 -E2_0" intLanes=":J1_1_0 :J1_2_0 :J1_3_0 :J1_4_0 :J1_7_0 :J1_8_0"/>

    <connection from="-E1" to="E2" fromLane="1" toLane="0" via=":J1_6_0" tl="J1" linkIndex="6" dir="r" state="o"/>
    <connection from="-E1" to="-E0" fromLane="1" toLane="0" via=":J1_7_0" tl="J1" linkIndex="7" dir="s" state="o"/>
    <connection from="-E1" to="E3" fromLane="1" toLane="0" via=":J1_8_0" tl="J1" linkIndex="8" dir="l" state="o"/>
    <connection from="-E1" to="E1" fromLane="1" toLane="1" via=":J1_9_0" tl="J1" linkIndex="9" dir="t" state="o"/>
    <connection from="-E2" to="-E0" fromLane="0" toLane="0" via=":J1_3_0" tl="J1" linkIndex="3" dir="r" state="o"/>
    <connection from="-E2" to="E3" fromLane="0" toLane="0" via=":J1_4_0" tl="J1" linkIndex="4" dir="s" state="o"/>
    <connection from="-E2" to="E1" fromLane="0" toLane="1" via=":J1_5_0" tl="J1" linkIndex="5" dir="l" state="o"/>
    <connection from="-E3" to="E1" fromLane="0" toLane="1" via=":J1_10_0" tl="J1" linkIndex="10" dir="r" state="o"/>
    <connection from="-E3" to="E2" fromLane="0" toLane="0" via=":J1_11_0" tl="J1" linkIndex="11" dir="s" state="o"/>
    <connection from="-E3" to="-E0" fromLane="0" toLane="0" via=":J1_12_0" tl="J1" linkIndex="12" dir="l" state="o"/>
    <connection from="E0" to="E3" fromLane="0" toLane="0" via=":J1_0_0" tl="J1" linkIndex="0" dir="r" state="O"/>
    <connection from="E0" to="E1" fromLane="0" toLane="1" via=":J1_1_0" tl="J1" linkIndex="1" dir="s" state="o"/>
    <connection from="E0" to="E2" fromLane="0" toLane="0" via=":J1_2_0" tl="J1" linkIndex="2" dir="l" state="o"/>
    <connection from="E1" to="-E1" fromLane="0" toLane="0" via=":J2_0_0" dir="t" state="M"/>

    <connection from=":J1_0" to="E3" fromLane="0" toLane="0" dir="r" state="M"/>
    <connection from=":J1_1" to="E1" fromLane="0" toLane="1" dir="s" state="M"/>
    <connection from=":J1_2" to="E2" fromLane="0" toLane="0" via=":J1_13_0" dir="l" state="m"/>
    <connection from=":J1_13" to="E2" fromLane="0" toLane="0" dir="l" state="M"/>
    <connection from=":J1_3" to="-E0" fromLane="0" toLane="0" dir="r" state="M"/>
    <connection from=":J1_4" to="E3" fromLane="0" toLane="0" dir="s" state="M"/>
    <connection from=":J1_5" to="E1" fromLane="0" toLane="1" via=":J1_14_0" dir="l" state="m"/>
    <connection from=":J1_14" to="E1" fromLane="0" toLane="1" dir="l" state="m"/>
    <connection from=":J1_6" to="E2" fromLane="0" toLane="0" dir="r" state="M"/>
    <connection from=":J1_7" to="-E0" fromLane="0" toLane="0" dir="s" state="M"/>
    <connection from=":J1_8" to="E3" fromLane="0" toLane="0" via=":J1_15_0" dir="l" state="m"/>
    <connection from=":J1_15" to="E3" fromLane="0" toLane="0" dir="l" state="M"/>
    <connection from=":J1_9" to="E1" fromLane="0" toLane="1" via=":J1_16_0" dir="t" state="m"/>
    <connection from=":J1_16" to="E1" fromLane="0" toLane="1" dir="t" state="m"/>
    <connection from=":J1_10" to="E1" fromLane="0" toLane="1" via=":J1_17_0" dir="r" state="m"/>
    <connection from=":J1_17" to="E1" fromLane="0" toLane="1" dir="r" state="m"/>
    <connection from=":J1_11" to="E2" fromLane="0" toLane="0" dir="s" state="M"/>
    <connection from=":J1_12" to="-E0" fromLane="0" toLane="0" via=":J1_18_0" dir="l" state="m"/>
    <connection from=":J1_18" to="-E0" fromLane="0" toLane="0" dir="l" state="M"/>
    <connection from=":J2_0" to="-E1" fromLane="0" toLane="0" dir="t" state="M"/>

    <connection from=":J0_w0" to="E0" fromLane="0" toLane="0" dir="s" state="M"/>
    <connection from="-E0" to=":J0_w0" fromLane="0" toLane="0" dir="s" state="M"/>
    <connection from=":J1_c0" to=":J1_w0" fromLane="0" toLane="0" dir="s" state="M"/>
    <connection from=":J1_w0" to=":J1_c0" fromLane="0" toLane="0" tl="J1" linkIndex="13" dir="s" state="M"/>
    <connection from=":J1_w0" to="E1" fromLane="0" toLane="0" dir="s" state="M"/>
    <connection from=":J1_w0" to="E3" fromLane="0" toLane="0" dir="s" state="M"/>
    <connection from=":J1_w0" to="-E0" fromLane="0" toLane="0" dir="s" state="M"/>
    <connection from=":J1_w0" to="E2" fromLane="0" toLane="0" dir="s" state="M"/>
    <connection from="-E3" to=":J1_w0" fromLane="0" toLane="0" dir="s" state="M"/>
    <connection from="E0" to=":J1_w0" fromLane="0" toLane="0" dir="s" state="M"/>
    <connection from="-E2" to=":J1_w0" fromLane="0" toLane="0" dir="s" state="M"/>
    <connection from="-E1" to=":J1_w0" fromLane="0" toLane="0" dir="s" state="M"/>
    <connection from=":J2_w0" to="-E1" fromLane="0" toLane="0" dir="s" state="M"/>
    <connection from="E1" to=":J2_w0" fromLane="0" toLane="0" dir="s" state="M"/>
    <connection from=":J3_w0" to="-E2" fromLane="0" toLane="0" dir="s" state="M"/>
    <connection from="E2" to=":J3_w0" fromLane="0" toLane="0" dir="s" state="M"/>
    <connection from=":J4_w0" to="-E3" fromLane="0" toLane="0" dir="s" state="M"/>
    <connection from="E3" to=":J4_w0" fromLane="0" toLane="0" dir="s" state="M"/>
</net>
